dssFiles/MasterCircuit_C591.dss
! Master File for Circuit : C591

Clear

New Circuit.C591 bus1=SourceBus BasekV=12.000000 pu=1.025  r1=0.0202  x1=0.4212  r0=0.0007  x0=1.4560 ! Default source impedance, check in SynerGEE if source impedance is defined and change 

Redirect linecodesC591.dss

Redirect LinesC591.dss

! Redirect SwitchesC591.dss

Redirect TransformersC591.dss

!New loadshape.m3loadmult npts= 35040 mInterval=15 mult = (file=./load-PV-shapes/M3loadmult_Jan01toDec31_reg.csv )
!New loadshape.m3pvmult npts= 35040 mInterval=15 mult = (file=./load-PV-shapes/M3pvgenmult_Jan01toDec31_reg.csv )
!New "loadshape.storagetest" npts= 35040 mInterval=15 mult= (file=./load-PV-shapes/M3storagemult_Jan01toDec31_reg.csv) qmult=(file=./load-PV-shapes/M3storageQmult_Jan01toDec31_reg.csv)

!Redirect ESSC591.dss

Redirect LoadsC591_unbalanced.dss

Redirect FusesC591.dss

Redirect RelaysC591.dss

Redirect PVC591_largecustomer.dss

Redirect PVC591_NEM.dss

! Redirect CapacitorsC591.dss

Redirect MeterC591.dss

export profile


! storage.ESSC591.dispmode=dispatch
! storage.ESSC591.Yearly=m3loadmult
!new monitor.VI storage.ESSC591 terminal=1 mode=0
!new monitor.PQ storage.ESSC591 terminal=1 ppolar=no mode=1
!new monitor.Vars storage.ESSC591 terminal=1 mode=3
!new monitor.TotalLoad1 Line.591_12661_UG terminal=1 ppolar=no mode=1
!new energymeter.TotalLoad2 Line.591_12661_UG terminal=1



set Voltagebases=[12.000000,0.48] 
calcVoltagebases

!set mode=yearly stepsize=15m number=97
!set time = (6047, 2700) ! Start with 12:00 a.m. on 253rd day
solve 


BusCoords BusCoordsC591.csv 

! Export Voltages
! Export Powers
! Show voltages ln node
! Show voltages ln elem
! Show powers kva elem
! Show Currents Elem
! Show losse
! Plot Profile
Plot Circuit

!Plot type=monitor object=VI channels=[1 3 5]
!Plot type=monitor object=PQ channels=[1 3 5]
!Plot type=monitor object=PQ channels=[2 4 6]
!Plot type=monitor object=Vars channels=[1]
! Plot type=monitor object=TotalLoad1 channels=[1 3 5]
! export mon VI
!export mon PQ
! export mon vars
! export mon TotalLoad1