dssFiles/C591_EXP_VOLTAGES.CSV
Bus, BasekV, Node1, Magnitude1, Angle1, pu1, Node2, Magnitude2, Angle2, pu2, Node3, Magnitude3, Angle3, pu3
"SOURCEBUS", 12, 1,    7055.94,   -0.8,    1.0184, 2,    7061.92, -120.7,    1.0193, 3,    7057.81,  119.3,    1.0187
"BP_591_57349", 12, 1,    6808.98,   -2.4,   0.98279, 2,    6836.86, -122.3,   0.98682, 3,    6822.94,  117.8,   0.98481
"STORAGEBUS", 0.48, 1,    272.305,   -2.6,    0.9826, 2,     273.42, -122.5,   0.98662, 3,    272.864,  117.6,   0.98461
"BP_591_19156", 12, 2,    6884.71, -122.7,   0.99372, 0, 0, 0, 0, 0, 0, 0, 0
"DJ_573907_1816", 12, 2,    6884.71, -122.7,   0.99372, 0, 0, 0, 0, 0, 0, 0, 0
"BP_591_15969", 12, 2,    6884.71, -122.7,   0.99372, 0, 0, 0, 0, 0, 0, 0, 0
"BP_591_19155", 12, 2,    6884.71, -122.7,   0.99372, 0, 0, 0, 0, 0, 0, 0, 0
"FU_591_1770", 12, 2,    6884.71, -122.7,   0.99372, 0, 0, 0, 0, 0, 0, 0, 0
"BP_591_22834", 12, 3,    6875.79,  117.3,   0.99243, 0, 0, 0, 0, 0, 0, 0, 0
"DJ_573921_1816", 12, 3,    6875.79,  117.3,   0.99243, 0, 0, 0, 0, 0, 0, 0, 0
"DJ_573920_1816", 12, 3,    6875.79,  117.3,   0.99243, 0, 0, 0, 0, 0, 0, 0, 0
"DJ_573919_1816", 12, 1,     6864.4,   -2.9,   0.99079, 2,    6886.01, -122.7,   0.99391, 3,    6875.79,  117.3,   0.99243
"DJ_573979_1816", 12, 1,    6862.58,   -2.9,   0.99053, 2,    6885.47, -122.8,   0.99383, 3,    6874.74,  117.3,   0.99228
"DJ_573978_1816", 12, 1,    6862.58,   -2.9,   0.99053, 2,    6885.47, -122.8,   0.99383, 3,    6874.74,  117.3,   0.99228
"BP_591_18904", 12, 3,    6863.54,  117.3,   0.99067, 0, 0, 0, 0, 0, 0, 0, 0
"BP_591_29125", 12, 3,    6864.51,  117.3,   0.99081, 0, 0, 0, 0, 0, 0, 0, 0
"BP_591_1557555", 12, 1,    6869.11,   -2.9,   0.99147, 0, 0, 0, 0, 0, 0, 0, 0
"BP_591_1557553", 12, 1,    6869.08,   -2.9,   0.99147, 0, 0, 0, 0, 0, 0, 0, 0
"DJ_620724_1816", 12, 1,    6808.99,   -2.4,   0.98279, 2,    6836.85, -122.3,   0.98681, 3,    6822.83,  117.8,   0.98479
"DJ_3975441_1816", 12, 1,    6809.01,   -2.4,    0.9828, 2,    6836.89, -122.3,   0.98682, 3,    6822.91,  117.8,    0.9848
"DJ_3600578_1816", 12, 1,    6807.21,   -2.4,   0.98254, 2,    6835.47, -122.3,   0.98661, 3,    6821.28,  117.8,   0.98457
"DJ_3600579_1816", 12, 1,    6806.13,   -2.4,   0.98238, 2,    6834.61, -122.3,   0.98649, 3,     6820.3,  117.8,   0.98443
"DJ_3600580_1816", 12, 1,    6803.94,   -2.4,   0.98206, 2,    6832.89, -122.3,   0.98624, 3,    6818.33,  117.8,   0.98414
"DJ_3600581_1816", 12, 1,    6802.37,   -2.4,   0.98184, 2,    6831.65, -122.3,   0.98606, 3,    6816.92,  117.8,   0.98394
"DJ_3600582_1816", 12, 1,    6801.91,   -2.4,   0.98177, 2,    6831.29, -122.3,   0.98601, 3,     6816.5,  117.8,   0.98388
"DJ_3600583_1816", 12, 1,    6801.31,   -2.4,   0.98168, 2,    6830.81, -122.3,   0.98594, 3,    6815.96,  117.8,    0.9838
"DJ_3600584_1816", 12, 1,    6799.43,   -2.5,   0.98141, 2,    6829.33, -122.3,   0.98573, 3,    6814.26,  117.8,   0.98355
"DJ_3600585_1816", 12, 1,    6798.09,   -2.5,   0.98122, 2,    6828.27, -122.3,   0.98558, 3,    6813.05,  117.8,   0.98338
"DJ_3600586_1816", 12, 1,    6796.87,   -2.5,   0.98104, 2,    6827.31, -122.3,   0.98544, 3,    6811.96,  117.7,   0.98322
"DJ_3600587_1816", 12, 1,    6795.84,   -2.5,    0.9809, 2,     6826.5, -122.4,   0.98532, 3,    6811.02,  117.7,   0.98309
"SW_591_447489", 12, 1,    6794.28,   -2.5,   0.98067, 2,    6825.26, -122.4,   0.98514, 3,    6809.61,  117.7,   0.98288
"BP_591_1557554", 12, 1,    6869.08,   -2.9,   0.99147, 0, 0, 0, 0, 0, 0, 0, 0
"DJ_2304721_1816", 12, 1,    6869.08,   -2.9,   0.99147, 0, 0, 0, 0, 0, 0, 0, 0
"XF_591_758929", 12, 1,    6869.08,   -2.9,   0.99147, 0, 0, 0, 0, 0, 0, 0, 0
"BP_591_16911", 12, 1,    6859.35,   -2.9,   0.99006, 0, 0, 0, 0, 0, 0, 0, 0
"BP_591_26463", 12, 1,    6859.29,   -2.9,   0.99005, 0, 0, 0, 0, 0, 0, 0, 0
"BP_591_30883", 12, 3,    6852.69,  117.3,    0.9891, 0, 0, 0, 0, 0, 0, 0, 0
"BP_591_30881", 12, 3,    6852.55,  117.3,   0.98908, 0, 0, 0, 0, 0, 0, 0, 0
"BP_591_30882", 12, 3,    6852.69,  117.3,    0.9891, 0, 0, 0, 0, 0, 0, 0, 0
"BP_591_31060", 12, 3,    6852.97,  117.3,   0.98914, 0, 0, 0, 0, 0, 0, 0, 0
"BP_591_22016", 12, 1,     6859.5,   -2.9,   0.99008, 0, 0, 0, 0, 0, 0, 0, 0
"BP_591_21046", 12, 1,    6859.44,   -2.9,   0.99008, 0, 0, 0, 0, 0, 0, 0, 0
"BP_591_26389", 12, 3,    6853.39,  117.3,    0.9892, 0, 0, 0, 0, 0, 0, 0, 0
"BP_591_31062", 12, 3,    6852.78,  117.3,   0.98911, 0, 0, 0, 0, 0, 0, 0, 0
"BP_591_25262", 12, 2,    6870.91, -122.8,   0.99173, 0, 0, 0, 0, 0, 0, 0, 0
"BP_591_17650", 12, 2,    6870.66, -122.8,    0.9917, 0, 0, 0, 0, 0, 0, 0, 0
"BP_591_25069", 12, 2,    6884.99, -122.7,   0.99376, 0, 0, 0, 0, 0, 0, 0, 0
"BP_591_25266", 12, 2,    6884.75, -122.7,   0.99373, 0, 0, 0, 0, 0, 0, 0, 0
"BP_591_28461", 12, 2,    6885.13, -122.7,   0.99378, 0, 0, 0, 0, 0, 0, 0, 0
"BP_591_25263", 12, 2,    6884.99, -122.7,   0.99376, 0, 0, 0, 0, 0, 0, 0, 0
"DJ_2820276_1816", 12, 2,    6866.52, -122.8,    0.9911, 0, 0, 0, 0, 0, 0, 0, 0
"BP_591_31570", 12, 2,    6866.52, -122.8,    0.9911, 0, 0, 0, 0, 0, 0, 0, 0
"XF_591_13072", 12, 2,    6866.52, -122.8,    0.9911, 0, 0, 0, 0, 0, 0, 0, 0
"BP_591_30701", 12, 1,    6863.08,   -2.9,    0.9906, 2,    6874.59, -122.8,   0.99226, 3,    6863.39,  117.3,   0.99065
"DJ_579118_1816", 12, 1,    6863.08,   -2.9,    0.9906, 2,    6874.59, -122.8,   0.99226, 3,    6863.39,  117.3,   0.99065
"BP_591_30702", 12, 1,    6863.08,   -2.9,    0.9906, 2,    6874.59, -122.8,   0.99226, 3,    6863.39,  117.3,   0.99065
"DJ_568957_1816", 12, 3,    6871.51,  117.3,   0.99182, 0, 0, 0, 0, 0, 0, 0, 0
"BP_591_21738", 12, 3,    6871.51,  117.3,   0.99182, 0, 0, 0, 0, 0, 0, 0, 0
"CP_591_7905", 12, 1,    6868.96,   -2.9,   0.99145, 2,     6884.4, -122.8,   0.99368, 3,    6875.21,  117.3,   0.99235
"CP_591_8791", 12, 1,    6868.63,   -2.9,    0.9914, 2,    6883.88, -122.8,    0.9936, 3,    6874.41,  117.3,   0.99224
"FU_591_1895", 12, 1,    6868.95,   -2.9,   0.99145, 0, 0, 0, 0, 0, 0, 0, 0
"BP_591_16525", 12, 1,    6868.87,   -2.9,   0.99144, 0, 0, 0, 0, 0, 0, 0, 0
"FU_591_2717", 12, 1,    6868.95,   -2.9,   0.99145, 2,    6884.37, -122.8,   0.99367, 3,    6875.21,  117.3,   0.99235
"BP_591_30865", 12, 1,    6868.93,   -2.9,   0.99144, 2,    6884.35, -122.8,   0.99367, 3,    6875.19,  117.3,   0.99235
"BP_591_26217", 12, 1,    6869.41,   -2.9,   0.99151, 2,     6885.1, -122.8,   0.99378, 3,    6876.16,  117.3,   0.99249
"CP_591_9111", 12, 1,    6868.96,   -2.9,   0.99145, 2,     6884.4, -122.8,   0.99368, 3,    6875.21,  117.3,   0.99235
"BP_591_26489", 12, 3,    6873.38,  117.3,   0.99209, 0, 0, 0, 0, 0, 0, 0, 0
"BP_591_16457", 12, 3,    6873.23,  117.3,   0.99207, 0, 0, 0, 0, 0, 0, 0, 0
"BP_591_29164", 12, 1,    6861.52,   -2.9,   0.99037, 0, 0, 0, 0, 0, 0, 0, 0
"BP_591_29166", 12, 1,    6861.42,   -2.9,   0.99036, 0, 0, 0, 0, 0, 0, 0, 0
"DJ_569002_1816", 12, 3,    6873.12,  117.3,   0.99205, 0, 0, 0, 0, 0, 0, 0, 0
"BP_591_1613554", 12, 3,    6873.12,  117.3,   0.99205, 0, 0, 0, 0, 0, 0, 0, 0
"BP_591_1613878", 12, 3,    6872.52,  117.3,   0.99196, 0, 0, 0, 0, 0, 0, 0, 0
"DJ_2389126_1816", 12, 3,    6872.52,  117.3,   0.99196, 0, 0, 0, 0, 0, 0, 0, 0
"XF_591_796035", 12, 3,    6872.52,  117.3,   0.99196, 0, 0, 0, 0, 0, 0, 0, 0
"BP_591_1613877", 12, 3,    6872.52,  117.3,   0.99196, 0, 0, 0, 0, 0, 0, 0, 0
"DJ_569004_1816", 12, 3,    6871.91,  117.3,   0.99188, 0, 0, 0, 0, 0, 0, 0, 0
"BP_591_1613882", 12, 3,    6871.91,  117.3,   0.99188, 0, 0, 0, 0, 0, 0, 0, 0
"DJ_2469207_1816", 12, 3,    6871.82,  117.3,   0.99186, 0, 0, 0, 0, 0, 0, 0, 0
"BP_591_1613884", 12, 3,    6871.82,  117.3,   0.99186, 0, 0, 0, 0, 0, 0, 0, 0
"XF_591_796036", 12, 3,    6871.82,  117.3,   0.99186, 0, 0, 0, 0, 0, 0, 0, 0
"BP_591_1613883", 12, 3,    6871.82,  117.3,   0.99186, 0, 0, 0, 0, 0, 0, 0, 0
"DJ_573965_1816", 12, 1,    6861.65,   -2.9,   0.99039, 0, 0, 0, 0, 0, 0, 0, 0
"BP_591_1613906", 12, 1,    6861.65,   -2.9,   0.99039, 0, 0, 0, 0, 0, 0, 0, 0
"DJ_573971_1816", 12, 1,    6861.58,   -2.9,   0.99038, 0, 0, 0, 0, 0, 0, 0, 0
"BP_591_1613907", 12, 1,    6861.58,   -2.9,   0.99038, 0, 0, 0, 0, 0, 0, 0, 0
"DJ_3361144_1816", 12, 1,    6861.16,   -2.9,   0.99032, 0, 0, 0, 0, 0, 0, 0, 0
"BP_591_1616754", 12, 1,    6861.16,   -2.9,   0.99032, 0, 0, 0, 0, 0, 0, 0, 0
"XF_591_798593", 12, 1,    6861.16,   -2.9,   0.99032, 0, 0, 0, 0, 0, 0, 0, 0
"DJ_568995_1816", 12, 1,    6861.16,   -2.9,   0.99032, 0, 0, 0, 0, 0, 0, 0, 0
"BP_591_1616755", 12, 1,    6861.16,   -2.9,   0.99032, 0, 0, 0, 0, 0, 0, 0, 0
"BP_591_1616756", 12, 1,    6861.16,   -2.9,   0.99032, 0, 0, 0, 0, 0, 0, 0, 0
"DJ_2469253_1816", 12, 1,    6860.81,   -2.9,   0.99027, 0, 0, 0, 0, 0, 0, 0, 0
"BP_591_1616757", 12, 1,    6860.81,   -2.9,   0.99027, 0, 0, 0, 0, 0, 0, 0, 0
"BP_591_1616758", 12, 1,    6860.81,   -2.9,   0.99027, 0, 0, 0, 0, 0, 0, 0, 0
"DJ_568988_1816", 12, 1,    6860.41,   -2.9,   0.99022, 0, 0, 0, 0, 0, 0, 0, 0
"BP_591_1616772", 12, 1,    6860.41,   -2.9,   0.99022, 0, 0, 0, 0, 0, 0, 0, 0
"BP_591_1616773", 12, 1,    6860.41,   -2.9,   0.99022, 0, 0, 0, 0, 0, 0, 0, 0
"DJ_568992_1816", 12, 1,    6860.37,   -2.9,   0.99021, 0, 0, 0, 0, 0, 0, 0, 0
"BP_591_1616774", 12, 1,    6860.37,   -2.9,   0.99021, 0, 0, 0, 0, 0, 0, 0, 0
"DJ_568987_1816", 12, 2,    6882.88, -122.8,   0.99346, 0, 0, 0, 0, 0, 0, 0, 0
"BP_591_1616784", 12, 2,    6882.88, -122.8,   0.99346, 0, 0, 0, 0, 0, 0, 0, 0
"BP_591_26390", 12, 3,    6853.39,  117.3,    0.9892, 0, 0, 0, 0, 0, 0, 0, 0
"BP_591_31059", 12, 3,    6852.97,  117.3,   0.98914, 0, 0, 0, 0, 0, 0, 0, 0
"BP_591_26393", 12, 3,     6867.2,  117.3,   0.99119, 0, 0, 0, 0, 0, 0, 0, 0
"BP_591_26395", 12, 3,    6867.75,  117.3,   0.99127, 0, 0, 0, 0, 0, 0, 0, 0
"BP_591_25264", 12, 3,    6868.96,  117.3,   0.99145, 0, 0, 0, 0, 0, 0, 0, 0
"BP_591_28463", 12, 3,    6867.75,  117.3,   0.99127, 0, 0, 0, 0, 0, 0, 0, 0
"BP_591_28460", 12, 3,    6870.31,  117.3,   0.99164, 0, 0, 0, 0, 0, 0, 0, 0
"BP_591_18635", 12, 3,    6869.85,  117.3,   0.99158, 0, 0, 0, 0, 0, 0, 0, 0
"BP_591_1613553", 12, 3,    6873.23,  117.3,   0.99206, 0, 0, 0, 0, 0, 0, 0, 0
"BP_591_18953", 12, 1,    6868.95,   -2.9,   0.99145, 2,    6884.37, -122.8,   0.99367, 3,    6875.21,  117.3,   0.99235
"BP_591_18684", 12, 1,    6868.95,   -2.9,   0.99145, 2,     6884.4, -122.8,   0.99368, 3,    6875.21,  117.3,   0.99235
"BP_591_1613555", 12, 3,    6873.23,  117.3,   0.99206, 0, 0, 0, 0, 0, 0, 0, 0
"BP_591_1613880", 12, 3,    6872.02,  117.3,   0.99189, 0, 0, 0, 0, 0, 0, 0, 0
"BP_591_1613879", 12, 3,    6872.02,  117.3,   0.99189, 0, 0, 0, 0, 0, 0, 0, 0
"BP_591_1613881", 12, 3,    6872.02,  117.3,   0.99189, 0, 0, 0, 0, 0, 0, 0, 0
"BP_591_1613888", 12, 1,    6861.69,   -2.9,    0.9904, 0, 0, 0, 0, 0, 0, 0, 0
"BP_591_1613887", 12, 1,    6861.69,   -2.9,    0.9904, 0, 0, 0, 0, 0, 0, 0, 0
"BP_591_1613905", 12, 1,    6861.69,   -2.9,    0.9904, 0, 0, 0, 0, 0, 0, 0, 0
"BP_591_1613908", 12, 1,     6861.2,   -2.9,   0.99033, 0, 0, 0, 0, 0, 0, 0, 0
"BP_591_16536", 12, 1,    6857.83,   -2.9,   0.98984, 0, 0, 0, 0, 0, 0, 0, 0
"BP_591_16141", 12, 1,     6857.8,   -2.9,   0.98984, 0, 0, 0, 0, 0, 0, 0, 0
"BP_591_18545", 12, 1,    6856.04,   -2.9,   0.98958, 0, 0, 0, 0, 0, 0, 0, 0
"CP_591_7904", 12, 1,    6856.31,   -2.9,   0.98962, 0, 0, 0, 0, 0, 0, 0, 0
"DJ_568986_1816", 12, 2,    6882.45, -122.8,    0.9934, 0, 0, 0, 0, 0, 0, 0, 0
"BP_591_1619329", 12, 2,    6882.45, -122.8,    0.9934, 0, 0, 0, 0, 0, 0, 0, 0
"DJ_568989_1816", 12, 2,     6882.6, -122.8,   0.99342, 0, 0, 0, 0, 0, 0, 0, 0
"BP_591_1619331", 12, 2,     6882.6, -122.8,   0.99342, 0, 0, 0, 0, 0, 0, 0, 0
"BP_591_1619330", 12, 2,     6882.6, -122.8,   0.99342, 0, 0, 0, 0, 0, 0, 0, 0
"DJ_568997_1816", 12, 2,    6882.46, -122.8,    0.9934, 0, 0, 0, 0, 0, 0, 0, 0
"BP_591_1619332", 12, 2,    6882.46, -122.8,    0.9934, 0, 0, 0, 0, 0, 0, 0, 0
"DJ_568994_1816", 12, 2,    6882.58, -122.8,   0.99341, 0, 0, 0, 0, 0, 0, 0, 0
"BP_591_1619953", 12, 2,    6882.58, -122.8,   0.99341, 0, 0, 0, 0, 0, 0, 0, 0
"BP_591_1672145", 12, 1,    6861.16,   -2.9,   0.99032, 0, 0, 0, 0, 0, 0, 0, 0
"BP_591_1613909", 12, 1,     6861.2,   -2.9,   0.99033, 0, 0, 0, 0, 0, 0, 0, 0
"BP_591_1613910", 12, 1,     6861.2,   -2.9,   0.99033, 0, 0, 0, 0, 0, 0, 0, 0
"BP_591_1616775", 12, 2,    6883.93, -122.8,   0.99361, 0, 0, 0, 0, 0, 0, 0, 0
"BP_591_1616777", 12, 2,    6883.02, -122.8,   0.99348, 0, 0, 0, 0, 0, 0, 0, 0
"BP_591_1616779", 12, 2,    6883.02, -122.8,   0.99348, 0, 0, 0, 0, 0, 0, 0, 0
"BP_591_1616783", 12, 2,    6882.62, -122.8,   0.99342, 0, 0, 0, 0, 0, 0, 0, 0
"BP_591_1616778", 12, 2,    6883.02, -122.8,   0.99348, 0, 0, 0, 0, 0, 0, 0, 0
"BP_591_1616781", 12, 2,    6882.62, -122.8,   0.99342, 0, 0, 0, 0, 0, 0, 0, 0
"BP_591_1616782", 12, 2,    6882.62, -122.8,   0.99342, 0, 0, 0, 0, 0, 0, 0, 0
"BP_591_1616780", 12, 2,    6882.62, -122.8,   0.99342, 0, 0, 0, 0, 0, 0, 0, 0
"BP_591_1619954", 12, 3,    6874.44,  117.3,   0.99224, 0, 0, 0, 0, 0, 0, 0, 0
"BP_591_1619955", 12, 3,    6873.23,  117.3,   0.99206, 0, 0, 0, 0, 0, 0, 0, 0
"BP_591_1619956", 12, 2,    6885.27, -122.8,    0.9938, 0, 0, 0, 0, 0, 0, 0, 0
"BP_591_1616776", 12, 2,    6883.93, -122.8,   0.99361, 0, 0, 0, 0, 0, 0, 0, 0
"BP_591_1619957", 12, 1,    6862.17,   -2.9,   0.99047, 0, 0, 0, 0, 0, 0, 0, 0
"BP_591_1613886", 12, 1,    6861.69,   -2.9,    0.9904, 0, 0, 0, 0, 0, 0, 0, 0
"XF_591_9946", 12, 2,    6866.88, -122.8,   0.99115, 0, 0, 0, 0, 0, 0, 0, 0
"DJ_579109_1816", 12, 2,    6866.88, -122.8,   0.99115, 0, 0, 0, 0, 0, 0, 0, 0
"DJ_2820306_1816", 12, 2,    6867.41, -122.8,   0.99123, 0, 0, 0, 0, 0, 0, 0, 0
"BP_591_31571", 12, 2,    6867.41, -122.8,   0.99123, 0, 0, 0, 0, 0, 0, 0, 0
"DJ_584899_1816", 12, 3,    6858.89,  117.2,      0.99, 0, 0, 0, 0, 0, 0, 0, 0
"BP_591_17486", 12, 3,    6858.89,  117.2,      0.99, 0, 0, 0, 0, 0, 0, 0, 0
"BP_591_17487", 12, 3,    6858.89,  117.2,      0.99, 0, 0, 0, 0, 0, 0, 0, 0
"BP_591_18683", 12, 1,    6860.55,   -2.9,   0.99024, 2,    6874.35, -122.8,   0.99223, 3,     6865.3,  117.3,   0.99092
"BP_591_18678", 12, 1,    6860.21,   -2.9,   0.99019, 2,    6874.03, -122.8,   0.99218, 3,    6865.11,  117.3,   0.99089
"XF_591_16422", 12, 1,     6862.7,   -2.9,   0.99055, 0, 0, 0, 0, 0, 0, 0, 0
"DJ_590237_1816", 12, 1,     6862.7,   -2.9,   0.99055, 0, 0, 0, 0, 0, 0, 0, 0
"DJ_590228_1816", 12, 1,       6864,   -2.9,   0.99073, 0, 0, 0, 0, 0, 0, 0, 0
"BP_591_18692", 12, 1,       6864,   -2.9,   0.99073, 0, 0, 0, 0, 0, 0, 0, 0
"BP_591_28884", 12, 1,     6867.7,   -2.9,   0.99127, 2,    6886.53, -122.8,   0.99398, 3,    6874.87,  117.3,    0.9923
"BP_591_29708", 12, 1,    6865.97,   -2.9,   0.99102, 2,    6886.38, -122.8,   0.99396, 3,    6873.38,  117.3,   0.99209
"DJ_590174_1816", 12, 2,    6859.25, -122.8,   0.99005, 0, 0, 0, 0, 0, 0, 0, 0
"BP_591_16454", 12, 2,    6859.25, -122.8,   0.99005, 0, 0, 0, 0, 0, 0, 0, 0
"DJ_590176_1816", 12, 2,    6885.57, -122.8,   0.99385, 0, 0, 0, 0, 0, 0, 0, 0
"BP_591_25841", 12, 2,    6885.57, -122.8,   0.99385, 0, 0, 0, 0, 0, 0, 0, 0
"BP_591_25842", 12, 2,    6885.57, -122.8,   0.99385, 0, 0, 0, 0, 0, 0, 0, 0
"BP_591_25843", 12, 1,     6862.7,   -2.9,   0.99055, 0, 0, 0, 0, 0, 0, 0, 0
"XF_591_14368", 12, 1,       6864,   -2.9,   0.99073, 0, 0, 0, 0, 0, 0, 0, 0
"DJ_590209_1816", 12, 1,    6864.53,   -2.9,   0.99081, 0, 0, 0, 0, 0, 0, 0, 0
"BP_591_18634", 12, 1,    6864.53,   -2.9,   0.99081, 0, 0, 0, 0, 0, 0, 0, 0
"XF_591_14354", 12, 1,    6864.53,   -2.9,   0.99081, 0, 0, 0, 0, 0, 0, 0, 0
"DJ_595210_1816", 12, 2,    6884.75, -122.7,   0.99373, 0, 0, 0, 0, 0, 0, 0, 0
"BP_591_17726", 12, 2,    6884.75, -122.7,   0.99373, 0, 0, 0, 0, 0, 0, 0, 0
"BP_591_21164", 12, 1,    6865.33,   -2.9,   0.99093, 0, 0, 0, 0, 0, 0, 0, 0
"BP_591_21476", 12, 1,    6864.93,   -2.9,   0.99087, 0, 0, 0, 0, 0, 0, 0, 0
"BP_591_26492", 12, 3,    6874.87,  117.3,    0.9923, 0, 0, 0, 0, 0, 0, 0, 0
"BP_591_29519", 12, 3,     6874.7,  117.3,   0.99228, 0, 0, 0, 0, 0, 0, 0, 0
"BP_591_15994", 12, 3,    6857.08,  117.2,   0.98973, 0, 0, 0, 0, 0, 0, 0, 0
"BP_591_31569", 12, 3,    6857.03,  117.2,   0.98973, 0, 0, 0, 0, 0, 0, 0, 0
"FU_591_1932", 12, 1,    6860.81,   -2.9,   0.99027, 0, 0, 0, 0, 0, 0, 0, 0
"BP_591_17488", 12, 1,    6860.72,   -2.9,   0.99026, 0, 0, 0, 0, 0, 0, 0, 0
"BP_591_17484", 12, 3,    6858.34,  117.2,   0.98992, 0, 0, 0, 0, 0, 0, 0, 0
"BP_591_17483", 12, 3,    6858.25,  117.2,    0.9899, 0, 0, 0, 0, 0, 0, 0, 0
"XF_591_14355", 12, 1,    6865.33,   -2.9,   0.99093, 0, 0, 0, 0, 0, 0, 0, 0
"DJ_590193_1816", 12, 1,    6865.33,   -2.9,   0.99093, 0, 0, 0, 0, 0, 0, 0, 0
"BP_591_17485", 12, 3,    6858.34,  117.2,   0.98992, 0, 0, 0, 0, 0, 0, 0, 0
"XF_591_15923", 12, 1,    6864.65,   -2.9,   0.99083, 0, 0, 0, 0, 0, 0, 0, 0
"DJ_595229_1816", 12, 1,    6864.65,   -2.9,   0.99083, 0, 0, 0, 0, 0, 0, 0, 0
"BP_591_15866", 12, 3,     6859.2,  117.2,   0.99004, 0, 0, 0, 0, 0, 0, 0, 0
"BP_591_15865", 12, 1,    6861.37,   -2.9,   0.99035, 2,    6872.16, -122.8,   0.99191, 3,     6859.2,  117.2,   0.99004
"BP_591_15864", 12, 1,    6860.81,   -2.9,   0.99027, 2,    6872.02, -122.8,   0.99189, 3,    6858.11,  117.2,   0.98988
"DJ_3975448_1816", 12, 1,    6921.28,   -2.3,     0.999, 2,    6937.38, -122.2,    1.0013, 3,    6929.25,  117.9,    1.0002
"DJ_3947505_1816", 12, 1,    6920.66,   -2.3,   0.99891, 2,     6936.8, -122.2,    1.0012, 3,    6928.62,  117.9,    1.0001
"BP_591_15861", 12, 2,     6867.8, -122.8,   0.99128, 0, 0, 0, 0, 0, 0, 0, 0
"CP_591_7136", 12, 2,    6867.99, -122.8,   0.99131, 0, 0, 0, 0, 0, 0, 0, 0
"BP_591_29817", 12, 2,     6867.8, -122.8,   0.99128, 0, 0, 0, 0, 0, 0, 0, 0
"CP_591_7135", 12, 1,    6863.12,   -2.9,   0.99061, 2,    6874.62, -122.8,   0.99227, 3,    6863.43,  117.3,   0.99065
"BP_591_15989", 12, 1,    6860.81,   -2.9,   0.99027, 2,    6872.02, -122.8,   0.99189, 3,    6858.11,  117.2,   0.98988
"BP_591_15992", 12, 1,     6860.4,   -2.9,   0.99021, 2,    6871.99, -122.8,   0.99189, 3,    6857.08,  117.2,   0.98973
"DJ_590280_1816", 12, 1,    6869.38,   -2.9,   0.99151, 2,    6886.63, -122.8,     0.994, 3,    6876.68,  117.3,   0.99256
"BP_591_28662", 12, 1,    6869.38,   -2.9,   0.99151, 2,    6886.63, -122.8,     0.994, 3,    6876.68,  117.3,   0.99256
"XF_591_9935", 12, 2,    6885.74, -122.8,   0.99387, 0, 0, 0, 0, 0, 0, 0, 0
"DJ_590278_1816", 12, 2,    6885.74, -122.8,   0.99387, 0, 0, 0, 0, 0, 0, 0, 0
"FU_591_2716", 12, 2,    6884.37, -122.8,   0.99367, 0, 0, 0, 0, 0, 0, 0, 0
"BP_591_26939", 12, 2,    6884.27, -122.8,   0.99366, 0, 0, 0, 0, 0, 0, 0, 0
"BP_591_18677", 12, 1,    6860.21,   -2.9,   0.99019, 2,    6874.03, -122.8,   0.99218, 0, 0, 0, 0
"BP_591_16142", 12, 1,    6860.11,   -2.9,   0.99017, 2,    6873.96, -122.8,   0.99217, 0, 0, 0, 0
"CP_591_7682", 12, 1,    6870.09,   -2.9,   0.99161, 2,    6886.88, -122.8,   0.99404, 3,    6877.35,  117.3,   0.99266
"CP_591_7686", 12, 1,    6869.66,   -2.9,   0.99155, 2,    6886.76, -122.8,   0.99402, 3,    6876.97,  117.3,    0.9926
"XF_591_12724", 12, 1,    6912.69,   -2.3,   0.99776, 2,    6929.19, -122.2,    1.0001, 3,    6920.72,  117.9,   0.99892
"DJ_3947508_1816", 12, 1,    6920.66,   -2.3,   0.99891, 2,     6936.8, -122.2,    1.0012, 3,    6928.62,  117.9,    1.0001
"DJ_2662894_1816", 12, 3,    6855.33,  117.2,   0.98948, 0, 0, 0, 0, 0, 0, 0, 0
"BP_591_15870", 12, 3,    6855.33,  117.2,   0.98948, 0, 0, 0, 0, 0, 0, 0, 0
"BP_591_23444", 12, 3,    6855.33,  117.2,   0.98948, 0, 0, 0, 0, 0, 0, 0, 0
"DJ_590132_1816", 12, 2,    6884.53, -122.7,    0.9937, 0, 0, 0, 0, 0, 0, 0, 0
"BP_591_17742", 12, 2,    6884.53, -122.7,    0.9937, 0, 0, 0, 0, 0, 0, 0, 0
"DJ_2662896_1816", 12, 1,    6859.11,   -2.9,   0.99003, 0, 0, 0, 0, 0, 0, 0, 0
"BP_591_19681", 12, 1,    6859.11,   -2.9,   0.99003, 0, 0, 0, 0, 0, 0, 0, 0
"BP_591_15871", 12, 1,    6859.11,   -2.9,   0.99003, 0, 0, 0, 0, 0, 0, 0, 0
"DJ_2662915_1816", 12, 3,    6852.55,  117.3,   0.98908, 0, 0, 0, 0, 0, 0, 0, 0
"BP_591_21045", 12, 3,    6852.55,  117.3,   0.98908, 0, 0, 0, 0, 0, 0, 0, 0
"DJ_2662898_1816", 12, 1,    6859.44,   -2.9,   0.99008, 0, 0, 0, 0, 0, 0, 0, 0
"BP_591_21047", 12, 1,    6859.44,   -2.9,   0.99008, 0, 0, 0, 0, 0, 0, 0, 0
"XF_591_9488", 12, 1,    6859.44,   -2.9,   0.99008, 0, 0, 0, 0, 0, 0, 0, 0
"DJ_595177_1816", 12, 3,     6867.2,  117.3,   0.99119, 0, 0, 0, 0, 0, 0, 0, 0
"BP_591_28457", 12, 3,     6867.2,  117.3,   0.99119, 0, 0, 0, 0, 0, 0, 0, 0
"DJ_2662922_1816", 12, 3,    6852.57,  117.3,   0.98908, 0, 0, 0, 0, 0, 0, 0, 0
"BP_591_30385", 12, 3,    6852.57,  117.3,   0.98908, 0, 0, 0, 0, 0, 0, 0, 0
"BP_591_1724645", 12, 1,    6864.74,   -2.8,   0.99084, 0, 0, 0, 0, 0, 0, 0, 0
"DJ_2543187_1816", 12, 1,    6864.74,   -2.8,   0.99084, 0, 0, 0, 0, 0, 0, 0, 0
"XF_591_871553", 12, 1,    6864.74,   -2.8,   0.99084, 0, 0, 0, 0, 0, 0, 0, 0
"BP_591_1724644", 12, 1,    6864.74,   -2.8,   0.99084, 0, 0, 0, 0, 0, 0, 0, 0
"BP_591_1725604", 12, 1,    6865.69,   -2.8,   0.99098, 0, 0, 0, 0, 0, 0, 0, 0
"DJ_2544369_1816", 12, 1,    6865.69,   -2.8,   0.99098, 0, 0, 0, 0, 0, 0, 0, 0
"XF_591_873170", 12, 1,    6865.69,   -2.8,   0.99098, 0, 0, 0, 0, 0, 0, 0, 0
"BP_591_1725603", 12, 1,    6865.69,   -2.8,   0.99098, 0, 0, 0, 0, 0, 0, 0, 0
"DJ_579199_1816", 12, 1,    6868.87,   -2.9,   0.99144, 0, 0, 0, 0, 0, 0, 0, 0
"BP_591_26938", 12, 1,    6868.87,   -2.9,   0.99144, 0, 0, 0, 0, 0, 0, 0, 0
"XF_591_12273", 12, 1,    6868.87,   -2.9,   0.99144, 0, 0, 0, 0, 0, 0, 0, 0
"DJ_595187_1816", 12, 3,    6867.75,  117.3,   0.99127, 0, 0, 0, 0, 0, 0, 0, 0
"XF_591_10348", 12, 3,    6867.75,  117.3,   0.99127, 0, 0, 0, 0, 0, 0, 0, 0
"DJ_2557588_1816", 12, 1,    6869.49,   -2.8,   0.99153, 2,    6888.56, -122.7,   0.99428, 3,    6881.35,  117.4,   0.99324
"SW_591_290517", 12, 1,    6869.49,   -2.8,   0.99153, 2,    6888.57, -122.7,   0.99428, 3,    6881.35,  117.4,   0.99324
"SW_591_290518", 12, 1,    6869.48,   -2.8,   0.99152, 2,    6888.55, -122.7,   0.99428, 3,    6881.34,  117.4,   0.99324
"DJ_2557589_1816", 12, 1,    6869.48,   -2.8,   0.99152, 2,    6888.56, -122.7,   0.99428, 3,    6881.34,  117.4,   0.99324
"SW_591_290519", 12, 1,    6869.48,   -2.8,   0.99152, 2,    6888.55, -122.7,   0.99428, 3,    6881.34,  117.4,   0.99324
"FU_591_540275", 12, 1,    6869.49,   -2.8,   0.99153, 2,    6888.56, -122.7,   0.99428, 3,    6881.35,  117.4,   0.99324
"BP_591_1735509", 12, 3,    6881.33,  117.4,   0.99323, 0, 0, 0, 0, 0, 0, 0, 0
"DJ_2557594_1816", 12, 3,    6881.33,  117.4,   0.99323, 0, 0, 0, 0, 0, 0, 0, 0
"XF_591_879602", 12, 3,    6881.33,  117.4,   0.99323, 0, 0, 0, 0, 0, 0, 0, 0
"BP_591_1735508", 12, 3,    6881.33,  117.4,   0.99323, 0, 0, 0, 0, 0, 0, 0, 0
"DJ_574012_1816", 12, 1,    6857.87,   -2.9,   0.98985, 0, 0, 0, 0, 0, 0, 0, 0
"BP_591_23289", 12, 1,    6857.87,   -2.9,   0.98985, 0, 0, 0, 0, 0, 0, 0, 0
"XF_591_9332", 12, 1,    6857.87,   -2.9,   0.98985, 0, 0, 0, 0, 0, 0, 0, 0
"DJ_579222_1816", 12, 1,    6865.05,   -2.9,   0.99088, 0, 0, 0, 0, 0, 0, 0, 0
"BP_591_18809", 12, 1,    6865.05,   -2.9,   0.99088, 0, 0, 0, 0, 0, 0, 0, 0
"XF_591_15370", 12, 3,    6874.98,  117.3,   0.99232, 0, 0, 0, 0, 0, 0, 0, 0
"DJ_579246_1816", 12, 3,    6874.98,  117.3,   0.99232, 0, 0, 0, 0, 0, 0, 0, 0
"XF_591_13837", 12, 3,    6875.35,  117.3,   0.99237, 0, 0, 0, 0, 0, 0, 0, 0
"DJ_579239_1816", 12, 3,    6875.35,  117.3,   0.99237, 0, 0, 0, 0, 0, 0, 0, 0
"DJ_573959_1816", 12, 1,    6862.29,   -2.9,   0.99049, 0, 0, 0, 0, 0, 0, 0, 0
"BP_591_16273", 12, 1,    6862.29,   -2.9,   0.99049, 0, 0, 0, 0, 0, 0, 0, 0
"XF_591_13510", 12, 3,    6871.61,  117.3,   0.99183, 0, 0, 0, 0, 0, 0, 0, 0
"DJ_568962_1816", 12, 3,    6871.61,  117.3,   0.99183, 0, 0, 0, 0, 0, 0, 0, 0
"BP_591_23862", 12, 1,    6862.75,   -2.9,   0.99055, 2,    6885.54, -122.8,   0.99384, 3,    6874.84,  117.3,    0.9923
"DJ_574002_1816", 12, 1,    6862.75,   -2.9,   0.99055, 2,    6885.54, -122.8,   0.99384, 3,    6874.84,  117.3,    0.9923
"DJ_574001_1816", 12, 1,    6862.75,   -2.9,   0.99055, 2,    6885.54, -122.8,   0.99384, 3,    6874.84,  117.3,    0.9923
"BP_591_25138", 12, 1,    6862.75,   -2.9,   0.99055, 2,    6885.54, -122.8,   0.99384, 3,    6874.84,  117.3,    0.9923
"DJ_573947_1816", 12, 1,    6862.55,   -2.9,   0.99052, 0, 0, 0, 0, 0, 0, 0, 0
"BP_591_25507", 12, 1,    6862.55,   -2.9,   0.99052, 0, 0, 0, 0, 0, 0, 0, 0
"FU_591_2123", 12, 1,    6862.55,   -2.9,   0.99052, 0, 0, 0, 0, 0, 0, 0, 0
"BP_591_22833", 12, 1,     6864.4,   -2.9,   0.99079, 2,    6886.01, -122.7,   0.99391, 3,    6875.79,  117.3,   0.99243
"BP_591_22835", 12, 2,    6886.01, -122.7,   0.99391, 3,    6875.46,  117.3,   0.99239, 0, 0, 0, 0
"DJ_568970_1816", 12, 3,    6872.17,  117.3,   0.99191, 0, 0, 0, 0, 0, 0, 0, 0
"BP_591_25054", 12, 3,    6872.17,  117.3,   0.99191, 0, 0, 0, 0, 0, 0, 0, 0
"BP_591_20642", 12, 1,    6859.78,   -2.9,   0.99012, 2,    6871.44, -122.8,   0.99181, 3,    6855.36,  117.2,   0.98949
"DJ_2662992_1816", 12, 1,    6859.68,   -2.9,   0.99011, 2,    6871.85, -122.8,   0.99187, 3,    6855.36,  117.2,   0.98949
"CP_591_9583", 12, 1,    7054.84,   -0.8,    1.0183, 2,    7060.89, -120.7,    1.0192, 3,    7056.82,  119.3,    1.0186
"CP_591_8232", 12, 1,     7054.1,   -0.8,    1.0182, 2,     7060.2, -120.7,    1.0191, 3,    7056.16,  119.3,    1.0185
"BP_591_1742545", 12, 2,    6886.09, -122.8,   0.99392, 0, 0, 0, 0, 0, 0, 0, 0
"DJ_590271_1816", 12, 2,    6886.09, -122.8,   0.99392, 0, 0, 0, 0, 0, 0, 0, 0
"BP_591_1742546", 12, 2,    6886.09, -122.8,   0.99392, 0, 0, 0, 0, 0, 0, 0, 0
"BP_591_1742547", 12, 2,    6885.74, -122.8,   0.99387, 0, 0, 0, 0, 0, 0, 0, 0
"CP_591_1095237", 12, 1,    6866.33,   -2.9,   0.99107, 2,    6887.12, -122.7,   0.99407, 3,    6878.18,  117.3,   0.99278
"CP_591_1093985", 12, 1,    6865.77,   -2.9,   0.99099, 2,    6886.87, -122.7,   0.99403, 3,    6877.63,  117.3,    0.9927
"BP_591_1723042", 12, 1,    6864.86,   -2.8,   0.99086, 2,    6885.42, -122.7,   0.99382, 3,    6882.44,  117.4,    0.9934
"BP_591_1723044", 12, 1,    6864.86,   -2.8,   0.99086, 2,    6885.42, -122.7,   0.99382, 3,    6882.44,  117.4,    0.9934
"BP_591_1723671", 12, 1,    6865.93,   -2.8,   0.99101, 2,    6886.31, -122.7,   0.99395, 3,    6882.13,  117.4,   0.99335
"CP_591_1095238", 12, 1,    6866.33,   -2.9,   0.99107, 2,    6887.12, -122.7,   0.99407, 3,    6878.18,  117.3,   0.99278
"CP_591_1095233", 12, 1,    6867.22,   -2.9,    0.9912, 2,    6887.53, -122.7,   0.99413, 3,    6879.07,  117.4,   0.99291
"CP_591_1095239", 12, 1,    6864.71,   -2.8,   0.99084, 2,    6885.24, -122.7,    0.9938, 3,    6882.49,  117.4,    0.9934
"BP_591_1723041", 12, 1,    6864.86,   -2.8,   0.99086, 2,    6885.42, -122.7,   0.99382, 3,    6882.44,  117.4,    0.9934
"BP_591_1723667", 12, 1,    6865.93,   -2.8,   0.99101, 2,    6886.31, -122.7,   0.99395, 3,    6882.13,  117.4,   0.99335
"BP_591_1725907", 12, 1,    6868.28,   -2.8,   0.99135, 2,    6887.77, -122.7,   0.99416, 3,    6881.51,  117.4,   0.99326
"CP_591_1095234", 12, 1,    6867.22,   -2.9,    0.9912, 2,    6887.53, -122.7,   0.99413, 3,    6879.07,  117.4,   0.99291
"CP_591_1097474", 12, 1,    6868.78,   -2.8,   0.99142, 2,    6888.24, -122.7,   0.99423, 3,    6880.64,  117.4,   0.99314
"BP_591_1723672", 12, 1,    6865.93,   -2.8,   0.99101, 2,    6886.31, -122.7,   0.99395, 3,    6882.13,  117.4,   0.99335
"BP_591_1725906", 12, 1,    6868.28,   -2.8,   0.99135, 2,    6887.77, -122.7,   0.99416, 3,    6881.51,  117.4,   0.99326
"BP_591_1725605", 12, 1,    6868.26,   -2.8,   0.99135, 2,    6887.75, -122.7,   0.99416, 3,    6881.49,  117.4,   0.99326
"CP_591_1106455", 12, 1,    6869.48,   -2.8,   0.99152, 2,    6888.55, -122.7,   0.99428, 3,    6881.34,  117.4,   0.99324
"CP_591_1097475", 12, 1,    6868.78,   -2.8,   0.99142, 2,    6888.24, -122.7,   0.99423, 3,    6880.64,  117.4,   0.99314
"BP_591_1725905", 12, 1,    6868.28,   -2.8,   0.99135, 2,    6887.77, -122.7,   0.99416, 3,    6881.51,  117.4,   0.99326
"BP_591_1747089", 12, 1,    6869.44,   -2.8,   0.99152, 2,    6888.53, -122.7,   0.99427, 3,    6881.35,  117.4,   0.99324
"CP_591_1106458", 12, 1,    6869.44,   -2.8,   0.99152, 2,    6888.53, -122.7,   0.99427, 0, 0, 0, 0
"BP_591_1734253", 12, 1,    6869.44,   -2.8,   0.99152, 2,    6888.53, -122.7,   0.99427, 0, 0, 0, 0
"CP_591_1106459", 12, 1,    6871.95,   -2.8,   0.99188, 2,    6890.93, -122.7,   0.99462, 3,    6882.73,  117.4,   0.99344
"CP_591_1106456", 12, 1,    6869.49,   -2.8,   0.99153, 2,    6888.57, -122.7,   0.99428, 3,    6881.35,  117.4,   0.99324
"BP_591_1734254", 12, 3,    6881.35,  117.4,   0.99324, 0, 0, 0, 0, 0, 0, 0, 0
"CG_591_305457", 12, 1,    6865.33,   -2.9,   0.99093, 0, 0, 0, 0, 0, 0, 0, 0
"BP_591_1734249", 12, 1,    6869.49,   -2.8,   0.99153, 2,    6888.56, -122.7,   0.99428, 3,    6881.35,  117.4,   0.99324
"BP_591_1736145", 12, 1,    6869.44,   -2.8,   0.99152, 2,    6888.53, -122.7,   0.99427, 3,    6881.35,  117.4,   0.99324
"CP_591_1106457", 12, 1,    6869.48,   -2.8,   0.99152, 2,    6888.55, -122.7,   0.99428, 3,    6881.34,  117.4,   0.99324
"CP_591_1106461", 12, 1,    6869.45,   -2.8,   0.99152, 2,     6888.5, -122.7,   0.99427, 3,    6881.35,  117.4,   0.99324
"BP_591_1735505", 12, 1,    6869.45,   -2.8,   0.99152, 2,     6888.5, -122.7,   0.99427, 3,    6881.35,  117.4,   0.99324
"BP_591_1736481", 12, 1,    6867.66,   -2.8,   0.99126, 2,    6885.99, -122.7,   0.99391, 3,    6881.13,  117.4,   0.99321
"BP_591_1742226", 12, 1,     6867.7,   -2.9,   0.99127, 2,    6886.53, -122.8,   0.99398, 3,    6874.87,  117.3,    0.9923
"BP_591_1742225", 12, 1,    6868.43,   -2.9,   0.99137, 2,    6886.57, -122.8,   0.99399, 3,    6875.66,  117.3,   0.99242
"BP_591_1742227", 12, 2,    6886.53, -122.8,   0.99398, 0, 0, 0, 0, 0, 0, 0, 0
"BP_591_1742548", 12, 2,    6885.91, -122.8,    0.9939, 0, 0, 0, 0, 0, 0, 0, 0
"BP_591_1742549", 12, 2,    6885.91, -122.8,    0.9939, 0, 0, 0, 0, 0, 0, 0, 0
"XF_591_9496", 12, 2,    6884.75, -122.7,   0.99373, 0, 0, 0, 0, 0, 0, 0, 0
"XF_591_12269", 12, 3,    6868.05,  117.3,   0.99132, 0, 0, 0, 0, 0, 0, 0, 0
"DJ_574020_1816", 12, 3,    6868.05,  117.3,   0.99132, 0, 0, 0, 0, 0, 0, 0, 0
"XF_591_12081", 12, 3,    6867.61,  117.3,   0.99125, 0, 0, 0, 0, 0, 0, 0, 0
...